Version 4
SHEET 1 1216 680
WIRE 192 -48 192 -176
WIRE 208 -48 192 -48
WIRE 272 -48 272 -176
WIRE 272 -48 256 -48
WIRE 80 0 -32 0
WIRE 192 0 160 0
WIRE 384 0 272 0
WIRE 560 0 384 0
WIRE 624 0 560 0
WIRE 768 0 704 0
WIRE 768 112 768 0
WIRE 384 128 384 0
WIRE 560 128 560 0
WIRE -32 144 -32 0
WIRE -32 288 -32 224
WIRE 384 288 384 208
WIRE 384 288 -32 288
WIRE 480 288 384 288
WIRE 560 288 560 192
WIRE 560 288 480 288
WIRE 768 288 768 192
WIRE 768 288 560 288
WIRE 480 320 480 288
FLAG 480 320 0
SYMBOL cap 544 128 R0
SYMATTR InstName C1
SYMATTR Value 0,5uF
SYMBOL res 176 -16 R90
WINDOW 0 0 56 VBottom 2
WINDOW 3 32 56 VTop 2
SYMATTR InstName R1
SYMATTR Value 5K
SYMBOL res 720 -16 R90
WINDOW 0 0 56 VBottom 2
WINDOW 3 32 56 VTop 2
SYMATTR InstName R2
SYMATTR Value 10K
SYMBOL res 400 224 R180
WINDOW 0 36 76 Left 2
WINDOW 3 36 40 Left 2
SYMATTR InstName R3
SYMATTR Value 15K
SYMBOL res 752 96 R0
SYMATTR InstName R4
SYMATTR Value 20K
SYMBOL voltage -32 128 R0
SYMATTR InstName V1
SYMATTR Value 15V
SYMBOL sw 288 0 R90
SYMATTR InstName S1
SYMATTR Value SW_1
SYMBOL voltage 176 -176 R270
WINDOW 0 32 56 VTop 2
WINDOW 3 -32 56 VBottom 2
WINDOW 123 0 0 Left 0
WINDOW 39 0 0 Left 0
SYMATTR InstName V2
SYMATTR Value PULSE(0 10 0 1n 1n 10m 20m)
TEXT -64 344 Left 2 !.tran 40m startup
TEXT 664 -160 Left 2 !.Model SW_1 SW(Ron=1m Roff=100Meg Vt=5)
